REMARK  Name = /project2/andrewferguson/sachar/test/dE_analysis/pfos-f-acd/acd_start.pdb
REMARK  24 active torsions:
REMARK  status: ('A' for Active; 'I' for Inactive)
REMARK    1  A    between atoms: C5_4  and  C6_6
REMARK    2  A    between atoms: C6_6  and  O6_9
REMARK    3  A    between atoms: C2_11  and  O2_13
REMARK    4  A    between atoms: C3_15  and  O3_17
REMARK    5  A    between atoms: C5_25  and  C6_27
REMARK    6  A    between atoms: C6_27  and  O6_30
REMARK    7  A    between atoms: C2_32  and  O2_34
REMARK    8  A    between atoms: C3_36  and  O3_38
REMARK    9  A    between atoms: C5_46  and  C6_48
REMARK   10  A    between atoms: C6_48  and  O6_51
REMARK   11  A    between atoms: C2_53  and  O2_55
REMARK   12  A    between atoms: C3_57  and  O3_59
REMARK   13  A    between atoms: C5_67  and  C6_69
REMARK   14  A    between atoms: C6_69  and  O6_72
REMARK   15  A    between atoms: C2_74  and  O2_76
REMARK   16  A    between atoms: C3_78  and  O3_80
REMARK   17  A    between atoms: C5_88  and  C6_90
REMARK   18  A    between atoms: C6_90  and  O6_93
REMARK   19  A    between atoms: C2_95  and  O2_97
REMARK   20  A    between atoms: C3_99  and  O3_101
REMARK   21  A    between atoms: C5_109  and  C6_111
REMARK   22  A    between atoms: C6_111  and  O6_114
REMARK   23  A    between atoms: C2_116  and  O2_118
REMARK   24  A    between atoms: C3_120  and  O3_122
REMARK                            x       y       z     vdW  Elec       q    Type
REMARK                         _______ _______ _______ _____ _____    ______ ____
ROOT
ATOM      1  C1  4GA     1      35.080  29.980  34.030  0.00  0.00    +0.000 C 
ATOM      2  O5  4GA     1      34.060  29.500  34.900  0.00  0.00    +0.000 OA
ATOM      3  C5  4GA     1      33.050  30.460  35.290  0.00  0.00    +0.000 C 
ATOM      4  C2  4GA     1      34.410  30.350  32.710  0.00  0.00    +0.000 C 
ATOM      5  C3  4GA     1      33.370  31.440  32.960  0.00  0.00    +0.000 C 
ATOM      6  C4  4GA     1      32.350  31.040  34.040  0.00  0.00    +0.000 C 
ATOM      7  O4  4GA     1      31.690  32.260  34.410  0.00  0.00    +0.000 OA
ATOM      8  C1  4GA     2      30.290  32.190  34.700  0.00  0.00    +0.000 C 
ATOM      9  O5  4GA     2      29.990  32.850  35.930  0.00  0.00    +0.000 OA
ATOM     10  C5  4GA     2      30.430  34.220  36.050  0.00  0.00    +0.000 C 
ATOM     11  C2  4GA     2      29.470  32.920  33.630  0.00  0.00    +0.000 C 
ATOM     12  C3  4GA     2      29.940  34.360  33.510  0.00  0.00    +0.000 C 
ATOM     13  C4  4GA     2      29.910  35.070  34.870  0.00  0.00    +0.000 C 
ATOM     14  O4  4GA     2      30.780  36.190  34.730  0.00  0.00    +0.000 OA
ATOM     15  C1  4GA     3      30.240  37.460  35.060  0.00  0.00    +0.000 C 
ATOM     16  O5  4GA     3      30.910  38.020  36.190  0.00  0.00    +0.000 OA
ATOM     17  C5  4GA     3      32.330  38.190  36.050  0.00  0.00    +0.000 C 
ATOM     18  C2  4GA     3      30.440  38.410  33.870  0.00  0.00    +0.000 C 
ATOM     19  C3  4GA     3      31.930  38.590  33.590  0.00  0.00    +0.000 C 
ATOM     20  C4  4GA     3      32.640  39.100  34.840  0.00  0.00    +0.000 C 
ATOM     21  O4  4GA     3      34.030  39.040  34.550  0.00  0.00    +0.000 OA
ATOM     22  C1  4GA     4      34.760  40.270  34.640  0.00  0.00    +0.000 C 
ATOM     23  O5  4GA     4      35.660  40.260  35.740  0.00  0.00    +0.000 OA
ATOM     24  C5  4GA     4      36.540  39.120  35.770  0.00  0.00    +0.000 C 
ATOM     25  C2  4GA     4      35.600  40.460  33.370  0.00  0.00    +0.000 C 
ATOM     26  C3  4GA     4      36.560  39.280  33.210  0.00  0.00    +0.000 C 
ATOM     27  C4  4GA     4      37.390  39.090  34.480  0.00  0.00    +0.000 C 
ATOM     28  O4  4GA     4      37.980  37.800  34.380  0.00  0.00    +0.000 OA
ATOM     29  C1  4GA     5      39.390  37.760  34.590  0.00  0.00    +0.000 C 
ATOM     30  O5  4GA     5      39.720  37.140  35.820  0.00  0.00    +0.000 OA
ATOM     31  C5  4GA     5      39.240  35.790  36.000  0.00  0.00    +0.000 C 
ATOM     32  C2  4GA     5      40.030  36.930  33.480  0.00  0.00    +0.000 C 
ATOM     33  C3  4GA     5      39.440  35.530  33.470  0.00  0.00    +0.000 C 
ATOM     34  C4  4GA     5      39.670  34.880  34.830  0.00  0.00    +0.000 C 
ATOM     35  O4  4GA     5      38.850  33.720  34.860  0.00  0.00    +0.000 OA
ATOM     36  C1  4GA     6      39.470  32.520  35.320  0.00  0.00    +0.000 C 
ATOM     37  O5  4GA     6      38.760  31.960  36.420  0.00  0.00    +0.000 OA
ATOM     38  C5  4GA     6      37.350  31.770  36.210  0.00  0.00    +0.000 C 
ATOM     39  C2  4GA     6      39.410  31.480  34.210  0.00  0.00    +0.000 C 
ATOM     40  C3  4GA     6      37.970  31.300  33.760  0.00  0.00    +0.000 C 
ATOM     41  C4  4GA     6      37.090  30.910  34.960  0.00  0.00    +0.000 C 
ATOM     42  O4  4GA     6      35.740  31.120  34.580  0.00  0.00    +0.000 OA
ENDROOT
BRANCH  19  43
ATOM     43  O3  4GA     3      32.090  39.570  32.550  0.00  0.00    +0.000 OA
ATOM     44  H3O 4GA     3      31.250  39.660  32.080  0.00  0.00    +0.000 HD
ENDBRANCH  19  43
BRANCH  40  45
ATOM     45  O3  4GA     6      37.920  30.240  32.780  0.00  0.00    +0.000 OA
ATOM     46  H3O 4GA     6      38.760  30.240  32.290  0.00  0.00    +0.000 HD
ENDBRANCH  40  45
BRANCH  39  47
ATOM     47  O2  4GA     6      40.230  31.930  33.110  0.00  0.00    +0.000 OA
ATOM     48  H2O 4GA     6      40.080  32.870  32.930  0.00  0.00    +0.000 HD
ENDBRANCH  39  47
BRANCH  33  49
ATOM     49  O3  4GA     5      40.130  34.740  32.480  0.00  0.00    +0.000 OA
ATOM     50  H3O 4GA     5      40.100  35.210  31.640  0.00  0.00    +0.000 HD
ENDBRANCH  33  49
BRANCH  32  51
ATOM     51  O2  4GA     5      39.790  37.580  32.210  0.00  0.00    +0.000 OA
ATOM     52  H2O 4GA     5      38.970  38.100  32.260  0.00  0.00    +0.000 HD
ENDBRANCH  32  51
BRANCH  26  53
ATOM     53  O3  4GA     4      37.480  39.530  32.130  0.00  0.00    +0.000 OA
ATOM     54  H3O 4GA     4      36.980  39.830  31.360  0.00  0.00    +0.000 HD
ENDBRANCH  26  53
BRANCH  25  55
ATOM     55  O2  4GA     4      34.720  40.540  32.230  0.00  0.00    +0.000 OA
ATOM     56  H2O 4GA     4      33.860  40.150  32.460  0.00  0.00    +0.000 HD
ENDBRANCH  25  55
BRANCH  18  57
ATOM     57  O2  4GA     3      29.800  37.830  32.700  0.00  0.00    +0.000 OA
ATOM     58  H2O 4GA     3      29.710  36.870  32.840  0.00  0.00    +0.000 HD
ENDBRANCH  18  57
BRANCH  12  59
ATOM     59  O3  4GA     2      29.050  35.090  32.630  0.00  0.00    +0.000 OA
ATOM     60  H3O 4GA     2      28.720  34.490  31.950  0.00  0.00    +0.000 HD
ENDBRANCH  12  59
BRANCH  11  61
ATOM     61  O2  4GA     2      29.620  32.270  32.350  0.00  0.00    +0.000 OA
ATOM     62  H2O 4GA     2      29.050  31.490  32.320  0.00  0.00    +0.000 HD
ENDBRANCH  11  61
BRANCH   5  63
ATOM     63  O3  4GA     1      32.670  31.660  31.710  0.00  0.00    +0.000 OA
ATOM     64  H3O 4GA     1      32.250  30.830  31.420  0.00  0.00    +0.000 HD
ENDBRANCH   5  63
BRANCH   4  65
ATOM     65  O2  4GA     1      35.410  30.840  31.790  0.00  0.00    +0.000 OA
ATOM     66  H2O 4GA     1      36.280  30.580  32.120  0.00  0.00    +0.000 HD
ENDBRANCH   4  65
BRANCH  24  67
ATOM     67  C6  4GA     4      37.330  39.150  37.080  0.00  0.00    +0.000 C 
BRANCH  67  68
ATOM     68  O6  4GA     4      38.410  40.100  36.980  0.00  0.00    +0.000 OA
ATOM     69  H6O 4GA     4      38.060  40.970  36.740  0.00  0.00    +0.000 HD
ENDBRANCH  67  68
ENDBRANCH  24  67
BRANCH  17  70
ATOM     70  C6  4GA     3      32.910  38.680  37.380  0.00  0.00    +0.000 C 
BRANCH  70  71
ATOM     71  O6  4GA     3      32.250  39.890  37.780  0.00  0.00    +0.000 OA
ATOM     72  H6O 4GA     3      31.450  39.640  38.250  0.00  0.00    +0.000 HD
ENDBRANCH  70  71
ENDBRANCH  17  70
BRANCH  31  73
ATOM     73  C6  4GA     5      39.740  35.290  37.350  0.00  0.00    +0.000 C 
BRANCH  73  74
ATOM     74  O6  4GA     5      41.180  35.290  37.340  0.00  0.00    +0.000 OA
ATOM     75  H6O 4GA     5      41.500  34.430  37.660  0.00  0.00    +0.000 HD
ENDBRANCH  73  74
ENDBRANCH  31  73
BRANCH  10  76
ATOM     76  C6  4GA     2      29.900  34.770  37.370  0.00  0.00    +0.000 C 
BRANCH  76  77
ATOM     77  O6  4GA     2      30.590  34.140  38.470  0.00  0.00    +0.000 OA
ATOM     78  H6O 4GA     2      30.140  34.410  39.280  0.00  0.00    +0.000 HD
ENDBRANCH  76  77
ENDBRANCH  10  76
BRANCH  38  79
ATOM     79  C6  4GA     6      36.780  31.110  37.470  0.00  0.00    +0.000 C 
BRANCH  79  80
ATOM     80  O6  4GA     6      36.970  32.010  38.580  0.00  0.00    +0.000 OA
ATOM     81  H6O 4GA     6      36.760  31.510  39.390  0.00  0.00    +0.000 HD
ENDBRANCH  79  80
ENDBRANCH  38  79
BRANCH   3  82
ATOM     82  C6  4GA     1      32.100  29.710  36.210  0.00  0.00    +0.000 C 
BRANCH  82  83
ATOM     83  O6  4GA     1      32.780  29.470  37.460  0.00  0.00    +0.000 OA
ATOM     84  H6O 4GA     1      32.530  30.200  38.060  0.00  0.00    +0.000 HD
ENDBRANCH  82  83
ENDBRANCH   3  82
TORSDOF 24
