REMARK SMILES CCCCCCCCCCCCOS([O])([O])[O]
REMARK SMILES IDX 8 1 9 4 10 7 11 10 12 13 13 16 14 17 15 18 16 19 17 20 7 21
REMARK SMILES IDX 6 24 5 27 4 30 3 33 2 36 1 39
REMARK H PARENT 8 2 8 3 9 5 9 6 10 8 10 9 11 11 11 12 12 14 12 15 7 22 7 23
REMARK H PARENT 6 25 6 26 5 28 5 29 4 31 4 32 3 34 3 35 2 37 2 38 1 40 1 41
REMARK H PARENT 1 42
ROOT
ATOM      1  C   UNL     1      29.909  30.383  29.008  1.00  0.00    -0.053 C 
ATOM      2  H   UNL     1      30.799  31.023  28.998  1.00  0.00     0.027 H 
ATOM      3  H   UNL     1      29.039  31.053  28.998  1.00  0.00     0.027 H 
ENDROOT
BRANCH   1   4
ATOM      4  C   UNL     1      29.909  29.503  27.748  1.00  0.00    -0.053 C 
ATOM      5  H   UNL     1      29.019  28.863  27.758  1.00  0.00     0.027 H 
ATOM      6  H   UNL     1      30.779  28.833  27.778  1.00  0.00     0.027 H 
BRANCH   4   7
ATOM      7  C   UNL     1      29.929  30.323  26.448  1.00  0.00    -0.051 C 
ATOM      8  H   UNL     1      30.809  30.993  26.458  1.00  0.00     0.027 H 
ATOM      9  H   UNL     1      29.049  30.963  26.398  1.00  0.00     0.027 H 
BRANCH   7  10
ATOM     10  C   UNL     1      29.989  29.433  25.188  1.00  0.00    -0.028 C 
ATOM     11  H   UNL     1      30.889  28.803  25.228  1.00  0.00     0.029 H 
ATOM     12  H   UNL     1      29.119  28.763  25.168  1.00  0.00     0.029 H 
BRANCH  10  13
ATOM     13  C   UNL     1      30.019  30.253  23.908  1.00  0.00     0.067 C 
ATOM     14  H   UNL     1      30.869  30.943  23.898  1.00  0.00     0.058 H 
ATOM     15  H   UNL     1      29.089  30.833  23.788  1.00  0.00     0.058 H 
BRANCH  13  16
ATOM     16  O   UNL     1      30.139  29.333  22.798  1.00  0.00    -0.266 OA
BRANCH  16  17
ATOM     17  S   UNL     1      30.139  30.033  21.278  1.00  0.00     0.311 S 
ATOM     18  O   UNL     1      31.259  31.013  21.298  1.00  0.00    -0.087 OA
ATOM     19  O   UNL     1      30.369  28.843  20.428  1.00  0.00    -0.087 OA
ATOM     20  O   UNL     1      28.799  30.663  21.128  1.00  0.00    -0.087 OA
ENDBRANCH  16  17
ENDBRANCH  13  16
ENDBRANCH  10  13
ENDBRANCH   7  10
ENDBRANCH   4   7
ENDBRANCH   1   4
BRANCH   1  21
ATOM     21  C   UNL     1      29.899  29.563  30.318  1.00  0.00    -0.053 C 
ATOM     22  H   UNL     1      30.759  28.883  30.318  1.00  0.00     0.027 H 
ATOM     23  H   UNL     1      28.999  28.933  30.338  1.00  0.00     0.027 H 
BRANCH  21  24
ATOM     24  C   UNL     1      29.939  30.433  31.578  1.00  0.00    -0.053 C 
ATOM     25  H   UNL     1      29.079  31.123  31.578  1.00  0.00     0.027 H 
ATOM     26  H   UNL     1      30.839  31.073  31.548  1.00  0.00     0.027 H 
BRANCH  24  27
ATOM     27  C   UNL     1      29.939  29.623  32.878  1.00  0.00    -0.053 C 
ATOM     28  H   UNL     1      30.799  28.933  32.878  1.00  0.00     0.027 H 
ATOM     29  H   UNL     1      29.039  28.993  32.918  1.00  0.00     0.027 H 
BRANCH  27  30
ATOM     30  C   UNL     1      30.009  30.483  34.148  1.00  0.00    -0.053 C 
ATOM     31  H   UNL     1      29.149  31.183  34.158  1.00  0.00     0.027 H 
ATOM     32  H   UNL     1      30.909  31.123  34.108  1.00  0.00     0.027 H 
BRANCH  30  33
ATOM     33  C   UNL     1      30.019  29.673  35.448  1.00  0.00    -0.054 C 
ATOM     34  H   UNL     1      29.109  29.043  35.488  1.00  0.00     0.027 H 
ATOM     35  H   UNL     1      30.869  28.973  35.438  1.00  0.00     0.027 H 
BRANCH  33  36
ATOM     36  C   UNL     1      30.089  30.533  36.718  1.00  0.00    -0.056 C 
ATOM     37  H   UNL     1      29.239  31.233  36.728  1.00  0.00     0.026 H 
ATOM     38  H   UNL     1      30.989  31.163  36.678  1.00  0.00     0.026 H 
BRANCH  36  39
ATOM     39  C   UNL     1      30.099  29.713  38.008  1.00  0.00    -0.065 C 
ATOM     40  H   UNL     1      30.959  29.033  38.038  1.00  0.00     0.023 H 
ATOM     41  H   UNL     1      29.189  29.103  38.098  1.00  0.00     0.023 H 
ATOM     42  H   UNL     1      30.149  30.353  38.898  1.00  0.00     0.023 H 
ENDBRANCH  36  39
ENDBRANCH  33  36
ENDBRANCH  30  33
ENDBRANCH  27  30
ENDBRANCH  24  27
ENDBRANCH  21  24
ENDBRANCH   1  21
TORSDOF 13
