REMARK  Name = pfos.pdb
REMARK  8 active torsions:
REMARK  status: ('A' for Active; 'I' for Inactive)
REMARK    1  A    between atoms: C8_2  and  C7_5
REMARK    2  A    between atoms: C7_5  and  C5_8
REMARK    3  A    between atoms: C5_8  and  C3_11
REMARK    4  A    between atoms: C3_11  and  C1_14
REMARK    5  A    between atoms: C1_14  and  C2_17
REMARK    6  A    between atoms: C2_17  and  C4_20
REMARK    7  A    between atoms: C4_20  and  C6_23
REMARK    8  A    between atoms: C6_23  and  S1_26
REMARK                            x       y       z     vdW  Elec       q    Type
REMARK                         _______ _______ _______ _____ _____    ______ ____
ROOT
ATOM      1  C1  KVX     1      30.000  29.630  30.020  0.00  0.00    +0.000 C 
ATOM      2  F1  KVX     1      28.920  28.830  29.910  0.00  0.00    +0.000 F 
ATOM      3  F2  KVX     1      31.120  28.860  30.140  0.00  0.00    +0.000 F 
ENDROOT
BRANCH   1   4
ATOM      4  C3  KVX     1      29.850  30.470  31.330  0.00  0.00    +0.000 C 
ATOM      5  F5  KVX     1      30.720  31.500  31.310  0.00  0.00    +0.000 F 
ATOM      6  F6  KVX     1      28.590  30.960  31.380  0.00  0.00    +0.000 F 
BRANCH   4   7
ATOM      7  C5  KVX     1      30.120  29.640  32.630  0.00  0.00    +0.000 C 
ATOM      8  F9  KVX     1      29.510  28.430  32.520  0.00  0.00    +0.000 F 
ATOM      9  F10 KVX     1      31.450  29.450  32.740  0.00  0.00    +0.000 F 
BRANCH   7  10
ATOM     10  C7  KVX     1      29.590  30.320  33.930  0.00  0.00    +0.000 C 
ATOM     11  F13 KVX     1      29.880  31.640  33.890  0.00  0.00    +0.000 F 
ATOM     12  F14 KVX     1      28.250  30.170  33.970  0.00  0.00    +0.000 F 
BRANCH  10  14
ATOM     13  F17 KVX     1      30.100  28.400  35.230  0.00  0.00    +0.000 F 
ATOM     14  C8  KVX     1      30.190  29.740  35.240  0.00  0.00    +0.000 C 
ATOM     15  F15 KVX     1      31.470  30.090  35.360  0.00  0.00    +0.000 F 
ATOM     16  F16 KVX     1      29.500  30.220  36.280  0.00  0.00    +0.000 F 
ENDBRANCH  10  14
ENDBRANCH   7  10
ENDBRANCH   4   7
ENDBRANCH   1   4
BRANCH   1  17
ATOM     17  C2  KVX     1      30.140  30.500  28.730  0.00  0.00    +0.000 C 
ATOM     18  F3  KVX     1      31.380  31.030  28.720  0.00  0.00    +0.000 F 
ATOM     19  F4  KVX     1      29.220  31.490  28.790  0.00  0.00    +0.000 F 
BRANCH  17  20
ATOM     20  C4  KVX     1      29.900  29.690  27.420  0.00  0.00    +0.000 C 
ATOM     21  F7  KVX     1      28.570  29.460  27.310  0.00  0.00    +0.000 F 
ATOM     22  F8  KVX     1      30.550  28.500  27.540  0.00  0.00    +0.000 F 
BRANCH  20  23
ATOM     23  C6  KVX     1      30.420  30.400  26.140  0.00  0.00    +0.000 C 
ATOM     24  F11 KVX     1      31.770  30.320  26.140  0.00  0.00    +0.000 F 
ATOM     25  F12 KVX     1      30.070  31.710  26.220  0.00  0.00    +0.000 F 
BRANCH  23  26
ATOM     26  S1  KVX     1      29.780  29.710  24.510  0.00  0.00    +0.000 S 
ATOM     27  O1  KVX     1      30.670  30.380  23.530  0.00  0.00    +0.000 OA
ATOM     28  O2  KVX     1      29.990  28.250  24.640  0.00  0.00    +0.000 OA
ATOM     29  O3  KVX     1      28.370  30.150  24.460  0.00  0.00    +0.000 OA
ENDBRANCH  23  26
ENDBRANCH  20  23
ENDBRANCH  17  20
ENDBRANCH   1  17
TORSDOF 8
