REMARK  Name = /project2/andrewferguson/sachar/test/dE_analysis/gas-phase/tcaa/no-sol.pdb
REMARK  2 active torsions:
REMARK  status: ('A' for Active; 'I' for Inactive)
REMARK    1  A    between atoms: C1_1  and  C2_2
REMARK    2  A    between atoms: C2_2  and  O2_7
REMARK                            x       y       z     vdW  Elec       q    Type
REMARK                         _______ _______ _______ _____ _____    ______ ____
ROOT
ATOM      1  C1  TCA     8      25.080  24.760  24.880  0.00  0.00    +0.000 C 
ATOM      2  CL1 TCA     8      23.350  24.510  24.430  0.00  0.00    +0.000 C 
ATOM      3  CL2 TCA     8      26.070  24.470  23.400  0.00  0.00    +0.000 C 
ATOM      4  CL3 TCA     8      25.330  26.480  25.390  0.00  0.00    +0.000 C 
ENDROOT
BRANCH   1   5
ATOM      5  C2  TCA     8      25.490  23.830  26.000  0.00  0.00    +0.000 C 
ATOM      6  O1  TCA     8      26.570  23.230  26.040  0.00  0.00    +0.000 OA
BRANCH   5   7
ATOM      7  O2  TCA     8      24.700  23.870  27.060  0.00  0.00    +0.000 OA
ATOM      8  H1  TCA     8      24.040  24.560  26.820  0.00  0.00    +0.000 HD
ENDBRANCH   5   7
ENDBRANCH   1   5
TORSDOF 2
